version 2
1
1
.ac dec 100 10 1Meg{return}.kicad adjustpaths{return}.save all{return}.probe alli
2
9
V(/Problem_7/Vout)
 
5
V(/Problem_7/Vout)
 
